/*--------------------------------*- C++ -*----------------------------------*\
| =========                 |                                                 |
| \\      /  F ield         | OpenFOAM: The Open Source CFD Toolbox           |
|  \\    /   O peration     | Version:  2.3.0                                 |
|   \\  /    A nd           | Web:      www.OpenFOAM.org                      |
|    \\/     M anipulation  |                                                 |
\*---------------------------------------------------------------------------*/
FoamFile
{
    version     2.0;
    format      ascii;
    class       dictionary;
    location    "system";
    object      fvSolution;
}
// * * * * * * * * * * * * * * * * * * * * * * * * * * * * * * * * * * * * * //

solvers
{
    "alpha.*"
    {
        nAlphaSubCycles 1;
        cAlpha          1;
    }

    "pcorr.*"
    {
        solver          PCG;
        preconditioner
        {
            preconditioner  GAMG;
            tolerance       1e-05;
            relTol          0;
            smoother        GaussSeidel;
            nPreSweeps      0;
            nPostSweeps     2;
            nFinestSweeps   2;
            cacheAgglomeration on;
            nCellsInCoarsestLevel 100;
            agglomerator    faceAreaPair;
            mergeLevels     1;
        }
        tolerance       1e-07;
        relTol          0;
        maxIter         100;
    }

    p_rgh
    {
        solver          GAMG;
        tolerance       1e-07;
        relTol          0.05;
        smoother        GaussSeidel;
        nPreSweeps      0;
        nPostSweeps     2;
        nFinestSweeps   2;
        cacheAgglomeration on;
        nCellsInCoarsestLevel 100;
        agglomerator    faceAreaPair;
        mergeLevels     1;
    }

    p_rghFinal
    {
        solver          PCG;
        preconditioner
        {
            preconditioner  GAMG;
            tolerance       1e-08;
            relTol          0;
            nVcycles        2;
            smoother        GaussSeidel;
            nPreSweeps      0;
            nPostSweeps     2;
            nFinestSweeps   2;
            cacheAgglomeration on;
            nCellsInCoarsestLevel 100;
            agglomerator    faceAreaPair;
            mergeLevels     1;
        }
        tolerance       1e-07;
        relTol          0;
        maxIter         30;
    }

 
    "(U|k|epsilon|omega|R|nuTilda)"
    {
        solver          PBiCGStab;
        preconditioner  DILU;
        tolerance       1e-08;
        relTol          0;
    }

    "(U|k|epsilon|omega|R|nuTilda)Final"
    {
        $U;
        relTol          0;
    }

    "(voidfraction|Us|Ksl|dSmoothing|UsNext|voidfractionNext|sSmoothField|vSmoothField)"
    {
        solver          PCG;
        preconditioner  DIC;
        tolerance       1e-05;
        relTol          0;
    }

}

PISO
{
    nCorrectors     4;
    nNonOrthogonalCorrectors 1;
    pRefCell        0;
    pRefValue       117400;
}
PIMPLE
{
    nOuterCorrectors 1;
    nCorrectors     4; 
    nNonOrthogonalCorrectors 1;
 //   pRefCell        0;
 //   pRefValue       117400;
}
relaxationFactors
{
    fields
    {
	    p	0.3;
    }
    equations
    {
        "U.*"           0.8;
        "k.*"           0.7;
        "epsilon.*"     0.7;
    }
}
// ************************************************************************* //
